<?xml version="1.0" encoding="UTF-8"?>
<routes xmlns:xsi="http://www.w3.org/2001/XMLSchema-instance" xsi:noNamespaceSchemaLocation="http://sumo.dlr.de/xsd/routes_file.xsd">
   <!--INITIALIZE ONE VEHICLE -->
   <vType id="passenger" vClass="passenger" maxSpeed="13" sigma="1.0"/>
   <route id="0" edges="552124698#0 552124698#1 552124698#2 552124695#0 552124695#1 237529479#2 237529479#3 237529479#4 237529479#5 237923126#0 237923126#1 237923126#2 237923126#3 237923126#4 457712221#0 457712221#1 457712221#2 237529482#0 237529482#1 237529482#2 4750707#0 4750707#0-AddedOffRampEdge 4750707#1 591263080#0 591263080#1 591263081#0 591263081#1 591263081#2-AddedOnRampEdge 591263081#2 591263081#3 591263081#4 514858414 491325112 76620724-AddedOnRampEdge 76620724 237659850#0 237659850#1 237659850#2 237659850#3 237659850#4 237659850#5 237659850#6 532436407#0 532436407#1 532436407#2 532436406#0 532436406#1 532436406#2 532436408#0 532436408#1 532436408#2 532436408#3 422439069#15 422439069#16 422439069#17 422439069#18 284834967#7 284834967#8 284834967#9 284834967#10 284834967#11 404402522#0 404402522#1 404402522#2 545901477#0 545901477#1 237923126#0 237923126#1 237923126#2 237923126#3 237923126#4 49303587 237529471#0 237529471#1 237529471#2 237923111#0 237923111#1 237923111#2 545902693 237795732#0 237795732#1 237795732#2 403600282#0 403600282#1 403600282#2 591631503#0 591631503#1 591631503#2 591631503#3 591631645#0 591631645#1 591631645#2 237655875#0 237655875#1 241618932#0 241618932#1 241618932#2 241618932#3 4750627#0 4750627#1 4743454#4 4743454#5 4743454#6 4743454#7 4745021#1 4745021#2 4745021#3 4745021#4 331574667#0 331574667#1 331574667#2 331574667#3 331574667#4 729397993 729397992#0 729397992#1 548391757#0 548391757#1 548391757#2 548391757#3 246638755#0 246638755#1 246638755#2 488501166 223928337#0 223928337#1 223928337#2 223928337#3 223928337#4 223928337#5 223928339#0 223928339#1 223928339#2 223928339#3 237655878#0 237655878#1 243591204#1 243591204#2 243591204#3 243591204#4 243591204#5 243591204#6 237529479#0 237529479#1 237529479#2 237529479#3 237529479#4 237529479#5 237923125#0 237923125#1 237923125#2 237923125#3 237529478#0 546184106#0 546184106#1 546184106#2 185961579 245676679#0 245676679#1 245676679#2 519560143 208708606#0 208708602 -243598400#8 -243598400#7 -243598400#6 -243598400#5 -243598400#4 -243598400#3 -243598400#2 4813522#0 4813522#1 4813522#2 245123968#5 243598400#0 243598400#1 243598400#2 243598400#3 243598400#4 243598400#5 243598400#6 243598400#7 243598400#8 185961550 306586234 547637834 404402531#0 404402531#1 185961579 245676679#0 245676679#1 245676679#2 519560143 208708606#0 208708602 -243598400#8 -243598400#7 -243598400#6 -243598400#5 -243598400#4 -243598400#3 -243598400#2 4813522#0 4813522#1 4813522#2 245123968#5 243598400#0 243598400#1 243598400#2 243598400#3 243598400#4 243598400#5 243598400#6 243598400#7 243598400#8 185961550 306586234 547637834 4787707 539245337 448563711 532289328#0 532289328#1 448563710 532088856#0 532088856#1 237529468#0 237529468#1 237529468#2 514849726#0 514849726#1 514849726#2 514849726#3 245676676#0 4745577#0 4745577#1 4745577#2 4745577#3 4745577#4 237529471#0 237529471#1 237529471#2 237923111#0 237923111#1 237923111#2 545902693 237795732#0 237795732#1 237795732#2 403600282#0 403600282#1 403600282#2 591631503#0 591631503#1 591631503#2 591631503#3 591631645#0 591631645#1 591631645#2 237655875#0 237655875#1 241618932#0 241618932#1 241618932#2 241618932#3 4750627#0 4750627#1 4743454#4 4743454#5 4743454#6 4743454#7 488501166 223928337#0 223928337#1 223928337#2 223928337#3 223928337#4 223928337#5 223928339#0 223928339#1 223928339#2 223928339#3 237655878#0 237655878#1 243591204#1 243591204#2 243591204#3 243591204#4 449991637#5 449991637#6 450610285#0 450610285#1 450610285#2 450610285#3 591637631#0 591637631#1 591637631#2 591637631#3 591631504#0 591631504#1 591631504#2 591631504#3 591631504#4 591631504#5 246638757#0 246638757#1 246638757#2 246638757#3 246638757#4 246638757#5 246638757#6 729397994 729397991 548391756#0 548391756#1 548391756#2 548391756#3 120328525#0 120328525#1 120328525#2 331574672#0 331574672#1 601816556#0 601816556#2 601816556#4 331574671#0 331574671#1 34609520#0 34609520#1 34609520#2 34609520#3 34609520#4 34609520#5 34609520#6 547477970#0 547477970#1 547477970#2 547477970#3 547477970#5 237529476#0 237529476#1 237529476#2 237529476#3 237529476#4 237529476#5 403600282#0 403600282#1 403600282#2 591631503#0 591631503#1 591631503#2 591631503#3 237655878#0 237655878#1 491443473#0 491443473#1 491622341#0 491622341#1 491622341#2 491622341#3 449991643#0 449991643#1 449991643#2 538551234 532504847#0 532504847#1 532504847#2 532504847#3 422439067#0 422439067#1 422439067#2 4745466#10 4745466#11 4745466#12 449991639#3 449991639#4 449991639#5 449991639#6 449991639#7 449991639#8 449991639#9 449991639#10 449991639#11 449991639#12 449991639#13 449991639#14 237506930#0 237506930#1 237506930#2 237506930#3 237506930#4 237506930#5 237506930#6 243591204#0 243591204#1 243591204#2 243591204#3 243591204#4 449991637#5 449991637#6 450610285#0 450610285#1 450610285#2 450610285#3 237655872#0 237655872#1 237655872#2 237655872#3 237655872#5 237529476#0 237529476#1 237529476#2 237529476#3 237529476#4 237529476#5 237529475#0 237529475#1 449991620#0 449991620#1 449991620#2 449991620#3 449991620#4 316582574#0 316582574#1 545715324#0 545715324#1 316582576#0 316582576#1 316582576#2 316582580#0 316582580#1 316582580#2 316582580#3 316582580#4 449991643#0 449991643#1 449991643#2 538551234 532504847#0 532504847#1 532504847#2 532504847#3 422439067#0 422439067#1 422439067#2 4745466#10 4745466#11 4745466#12 449991639#3 449991639#4 449991639#5 449991639#6 449991639#7 449991639#8 449991639#9 449991639#10 449991639#11 449991639#12 449991639#13 449991639#14 237506930#0 237506930#1 237506930#2 237506930#3 237506930#4 237506930#5 237506930#6 243591201 237655875#0 237655875#1 121830607#0 121830607#1 121830607#2 121830607#3 121830607#4 237655873#0 237655873#1 237655873#2 237655873#3 237655873#4 591249160 556491373#0 556491373#1 556491373#2 556491373#3 237529472#0 237529472#1 246638748#0 246638748#1 246638748#2 238326399#0 238326399#1 238326399#2 547477971#0 547477971#1 547477971#2 340350446#0 340350446#1 340350446#2 340350446#3 340350446#4 340350446#5 552124690#1 552124690#2 552124690#3 552124690#4 552124690#5 552124690#6 514858414 491325112 76620724-AddedOnRampEdge 76620724 237923111#0 237923111#1 237923111#2 545902693 237795732#0 237795732#1 237795732#2 403600282#0 403600282#1 403600282#2 591631503#0 591631503#1 591631503#2 591631503#3 237655878#0 237655878#1 491443473#0 491443473#1 491622341#0 491622341#1 491622341#2 491622341#3 449991643#0 449991643#1 449991643#2 538551234 532504847#0 532504847#1 103348969#1 103348969#2 422439069#0 422439069#1 449991642#6 449991642#7 449991642#8 449991642#9 449991642#10 449991642#11 316582579#0 316582579#1 316582579#2 316582579#3 316582579#4 243591204#4 243591204#5 243591204#6 237529479#0 237529479#1 237529479#2 237659850#5 237659850#6 532436407#0 532436407#1 532436407#2 532436406#0 532436406#1 532436406#2 532436408#0 532436408#1 532436408#2 532436408#3 532436408#4 532436408#5 532436408#6 532436408#7 532436408#8 532436408#9 295124091#16 295124091#17 295124091#18 295124091#19 238380511#0 238380511#1 238380511#2 450139789#0 450139789#1 450139789#2 208708605#5 208708605#6 208708605#7 243669511 245123968#0 245123968#1 245123968#2 245123968#3 4813518#3 4813518#4 4813518#5 243598400#5 243598400#6 243598400#7 243598400#8 185961550 306586234 547637834 4787707 539245337 532303308 309183788#0 309183788#1 545715326 245416089#0 245416089#1 245416089#2 103348976#0 103348976#1 103348976#2 103348976#3 103348976#4 244057618 237529495#0 237529495#1 237529495#2 237529495#3 532698806#0 532698806#1 244057616#0 244057616#1 545715325#0 545715325#1 316582572#0 316582572#1 316582572#2 316582572#3 316582574#0 316582574#1 545715324#0 545715324#1 316582576#0 316582576#1 316582576#2 316582580#0 316582580#1 316582580#2 316582580#3 316582580#4 491622344#0"/>
   <vehicle id="0" route="0" type="passenger" depart="0.00"/>
   <!-- RANDOM ROUTES -->
   <route id="1" edges="532088855#1 532088855#2 532088855#3 457712220#0 457712220#1 457712220#2 457712220#3 457712220#4 546184106#0 546184106#1 546184106#2 309183788#0 309183788#1 545715326 245416089#0 245416089#1 245416089#2 103348976#0 103348976#1 103348976#2 103348976#3 103348976#4 244057618 237529495#0 237529495#1 237529495#2 237529495#3 532698806#0 532698806#1 532436406#0 532436406#1 532436406#2 532436408#0 532436408#1 532436408#2 532436408#3 532436408#4 532436408#5 532436408#6 532436408#7 4745466#2 4745466#3 4745466#4 4745466#5 4745466#6 449991642#2 449991642#3 449991642#4 449991642#5 422439069#2 422439069#3 422439069#4 422439069#5 422439069#6 422439069#7 422439069#8 422439069#9 422439069#10 422439069#11 422439069#12 422439069#13 422439069#14 422439069#15 422439069#16 422439069#17 422439069#18 422439069#19 422439069#20 422439069#23 422439069#24 422439069#25 243598398#3 542836620 542990483 315272793#0 208708602 -243598400#8 -243598400#7 -243598400#6 -243598400#5 -243598400#4 -243598400#3 -243598400#2 4813522#0 4813522#1 4813522#2 4813522#3 4813522#4 136725371#0 136725371#1 136725371#2 136725371#3 -540074149#1 -245123969#1 -245123969#0 -542990488#1 -542990488#0 -208708601#1 -208708601#0 208708133#0 208708133#1 542836620 542990483 315272793#0 208708602 -243598400#8 -243598400#7 -243598400#6 -243598400#5 -243598400#4 -243598400#3 -243598400#2 4813522#0 4813522#1 4813522#2 4813522#3 224644646 4813518#2 4813518#3 4813518#4 4813518#5 243598400#5 243598400#6 243598400#7 243598400#8 185961550 306586234 547637834 4787707 539245337 532303308 309183788#0 309183788#1 545715326 263018090#0 263018090#1 532334352 4750681#0 4750681#1 545901478 237517573#0 237517573#1 404402525#0 404402525#1 404402525#2 404402525#3 404402525#4 552124698#0 552124698#1 552124698#2 237659859#0 237659859#1 237659859#2 237659859#3 237659859#4 237659859#5 237659859#6 237659859#7 237659859#8 237659859#9 316582579#3 316582579#4 243591204#4 449991637#5 449991637#6 591631503#0 591631503#1 591631503#2 591631503#3 591631645#0 591631645#1 591631645#2 237655875#0 237655875#1 241618932#0 241618932#1 241618932#2 241618932#3 4750627#0 4750627#1 4743454#4 4743454#5 4743454#6 4743454#7 4745021#1 4745021#2 4745021#3 4745021#4 237529472#0 237529472#1 246638748#0 246638748#1 246638748#2 591631504#0 591631504#1 591631504#2 591631504#3 591631504#4 591631504#5 246638757#0 246638757#1 246638757#2 246638757#3 246638757#4 246638757#5 246638757#6 729397994 729397991 548391756#0 548391756#1 548391756#2 548391756#3 120328525#0 120328525#1 120328525#2 331574672#0 331574672#1 601816556#0 601816556#2 601816556#4 553309957#0 553309957#1 553309957#3 553309957#4 553309957#5 552124690#1 552124690#2 552124690#3 552124690#4 552124690#5 552124690#6 514858414 491325112 76620724-AddedOnRampEdge 76620724 237659850#0 237659850#1 237659850#2 237659850#3 237659850#4 237659850#5 237659850#6 532436407#0 532436407#1 532436407#2 532436406#0 532436406#1 532436406#2 532436408#0 532436408#1 532436408#2 532436408#3 532436408#4 532436408#5 532436408#6 532436408#7 4745466#2 449991632#5 449991632#6 449991632#7 449991632#8 449991632#9 449991632#10 449991632#11 449991632#12 449991632#13 449991632#14 449991632#15 449991631#0 449991631#1 449991631#2 237659859#0 237659859#1 237659859#2 237659859#3 237659859#4 237659859#5 237659859#6 449991637#3 449991637#4 449991637#5 449991637#6 591631503#0 591631503#1 591631503#2 591631503#3 591631645#0 591631645#1 591631645#2 237655875#0 237655875#1 241618932#0 241618932#1 241618932#2 241618932#3 4750627#0 4750627#1 4743454#4 4743454#5 4743454#6 4743454#7 4745021#1 4745021#2 4745021#3 4745021#4 237529472#0 237529472#1 246638748#0 246638748#1 246638748#2 238326399#0 238326399#1 238326399#2 547477971#0 547477971#1 547477971#2 547477970#0 547477970#1 547477970#2 547477970#3 547477970#5 237529476#0 237529476#1 237529476#2 237529476#3 237529476#4 237529476#5 237529475#0 237529475#1 449991620#0 449991620#1 449991620#2 449991620#3 449991620#4 449991621#0 449991621#1 449991621#2 449991621#3 449991621#4 449991621#5 449991621#6 449991621#7 449991621#8 449991621#9 449991621#10 449991621#11 449991621#12 449991621#13 449991621#14 449991621#15 449991621#16 449991621#17 237645175#2 237645175#3 237795736#3 134565971#0 134565971#1 449991621#17 237645175#2 237645175#3 237795736#3 450610283#0 449991632#0 237805210#3 237805210#4 237805210#5 449991638#0 449991638#1 449991638#2 449991638#3 4745466#6 4745466#7 4745466#8 4745466#9 4745466#10 4745466#11 4745466#12 449991639#3 449991639#4 449991639#5 449991639#6 449991639#7 449991639#8 449991639#9 449991639#10 449991639#11 449991639#12 449991639#13 449991639#14 237506930#0 237506930#1 237506930#2 237506930#3 237506930#4 237506930#5 237506930#6 243591201 237655875#0 237655875#1 241618932#0 241618932#1 241618932#2 241618932#3 4750627#0 4750627#1 4743454#4 4743454#5 4743454#6 4743454#7 4745021#1 4745021#2 4745021#3 4745021#4 331574667#0 331574667#1 331574667#2"/>
   <route id="2" edges="129169442#1 60344581#1 237805210#0 237805210#1 237805210#2 449991632#1 449991632#2 449991632#3 449991632#4 449991632#5 449991632#6 449991632#7 449991632#8 422439069#12 422439069#13 422439069#14 422439069#15 422439069#16 422439069#17 422439069#18 284834967#7 284834967#8 284834967#9 284834967#10 284834967#11 404402522#0 404402522#1 404402522#2 545901477#0 545901477#1 237923126#0 237923126#1 237923126#2 237923126#3 237923126#4 49303587 237529471#0 237529471#1 237529471#2 237923111#0 237923111#1 237923111#2 545902693 237795732#0 237795732#1 237795732#2 403600282#0 403600282#1 403600282#2 450610285#0 450610285#1 450610285#2 450610285#3 591637631#0 591637631#1 591637631#2 591637631#3 591631504#0 591631504#1 591631504#2 591631504#3 591631504#4 591631504#5 246638757#0 246638757#1 246638757#2 246638757#3 246638757#4 246638757#5 246638757#6 729397994 729397991 548391756#0 548391756#1 548391756#2 548391756#3 120328525#0 120328525#1 120328525#2 331574672#0 331574672#1 601816556#0 601816556#2 601816556#4 331574671#0 331574671#1 34609520#0 34609520#1 34609520#2 34609520#3 34609520#4 34609520#5 34609520#6 547477970#0 547477970#1 547477970#2 547477970#3 547477970#5 237529476#0 237529476#1 237529476#2 237529476#3 237529476#4 237529476#5 403600282#0 403600282#1 403600282#2 591631503#0 591631503#1 591631503#2 591631503#3 237655878#0 237655878#1 491443473#0 491443473#1 491622341#0 491622341#1 491622341#2 491622341#3 449991643#0 449991643#1 449991643#2 538551234 532504847#0 532504847#1 103348969#1 103348969#2 422439069#0 422439069#1 422439069#2 422439069#3 422439069#4 449991638#8 449991638#9 449991638#10 449991638#11 449991638#12 449991638#13 449991637#0 449991637#1 449991637#2 449991637#3 449991637#4 243591204#5 243591204#6 237529479#0 237529479#1 237529479#2 237529479#3 237529479#4 237529479#5 237923126#0 237923126#1 237923126#2 237923126#3 237923126#4 49303587 237529471#0 237529471#1 237529471#2 237659850#0 237659850#1 237659850#2 237659850#3 237659850#4 237659850#5 237659850#6 532436407#0 532436407#1 532436407#2 532436406#0 532436406#1 532436406#2 532436408#0 532436408#1 532436408#2 532436408#3 422439069#15 422439069#16 422439069#17 422439069#18 422439069#19 422439069#20 42884391#1 42884391#2 42884391#3 42884391#4 42884391#5 42884391#6 42884391#7 42884391#8 430992948#0 430992948#1 532334352 4750681#0 4750681#1 545901478 237517573#0 237517573#1 545901477#0 545901477#1 237923125#0 237923125#1 237923125#2 237923125#3 237529478#0 -532334354 -532334357 -532334353 532334355 4750681#0 4750681#1 545901478 237517573#0 237517573#1 545901477#0 545901477#1 237923126#0 237923126#1 237923126#2 237923126#3 237923126#4 49303587 237529471#0 237529471#1 237529471#2 237923111#0 237923111#1 237923111#2 545902693 237795732#0 237795732#1 237795732#2 403600282#0 403600282#1 403600282#2 591631503#0 237529489#0 315316227#0 315316227#1 223928339#2 223928339#3 237655878#0 237655878#1 243591204#1 243591204#2 243591204#3 243591204#4 243591204#5 243591204#6 237529479#0 237529479#1 552124695#2 237795732#0 237795732#1 237795732#2 237529475#0 237529475#1 237529479#0 237529479#1 237529479#2 237659850#5 237659850#6 532436407#0 532436407#1 532436407#2 532436406#0 532436406#1 532436406#2 532436408#0 532436408#1 532436408#2 532436408#3 422439069#15 422439069#16 422439069#17 422439069#18 422439069#19 422439069#20 422439069#23 422439069#24 422439069#25 243598398#3 542836620 542990483 315272793#0 208708602 -243598400#8 -243598400#7 -243598400#6 -243598400#5 -243598400#4 -243598400#3 -243598400#2 4813522#0 4813522#1 4813522#2 4813522#3 224644646 4813518#2 4813518#3 4813518#4 4813518#5 243598400#5 243598400#6 243598400#7 243598400#8 185961550 306586234 547637834 4787707 539245337 532303308 309183788#0 309183788#1 545715326 245416089#0 245416089#1 245416089#2 103348976#0 103348976#1 103348976#2 103348976#3 103348976#4 244057618 237529495#0 237529495#1 237529495#2 237529495#3 532698806#0 532698806#1 532436406#0 532436406#1 532436406#2 532436408#0 532436408#1 532436408#2 532436408#3 532436408#4 532436408#5 532436408#6 532436408#7 4745466#2 449991632#5 449991632#6 449991632#7 449991632#8 449991632#9 449991632#10 449991632#11 449991632#12 449991632#13 449991632#14 449991632#15 449991631#0 449991631#1 449991631#2 552124695#0 552124695#1 237529479#2 237529479#3 237529479#4 237529479#5 237923126#0 237923126#1 237923126#2 237923126#3 237923126#4 457712221#0 457712221#1 457712221#2 237529482#0 237529482#1 237529482#2 245676676#0 245676676#1 245676676#2 245676676#3"/>
   <route id="3" edges="238380511#0 238380511#1 238380511#2 450139789#0 450139789#1 450139789#2 208708605#5 208708605#6 208708605#7 208708605#8 243598398#0 243598398#1 243598398#2 243598398#3 542836620 542990483 315272793#0 208708602 -243598400#8 -243598400#7 -243598400#6 -243598400#5 -243598400#4 -243598400#3 -243598400#2 4813522#0 4813522#1 4813522#2 4813522#3 224644646 4813518#2 4813518#3 4813518#4 4813518#5 243598400#5 243598400#6 243598400#7 243598400#8 185961550 306586234 547637834 4787707 539245337 532303308 309183788#0 309183788#1 545715326 263018090#0 263018090#1 532334352 4750681#0 4750681#1 545901478 237517573#0 237517573#1 404402525#0 404402525#1 404402525#2 404402525#3 404402525#4 552124698#0 552124698#1 552124698#2 237659859#0 237659859#1 237659859#2 237659859#3 449991620#2 449991620#3 449991620#4 449991621#0 449991621#1 449991621#2 449991621#3 449991621#4 449991621#5 449991621#6 449991621#7 449991621#8 449991621#9 4745466#5 4745466#6 449991642#2 449991642#3 449991642#4 449991642#5 449991642#6 449991642#7 449991642#8 449991642#9 449991642#10 449991642#11 316582579#0 316582579#1 316582579#2 316582579#3 316582579#4 243591204#4 243591204#5 243591204#6 237529479#0 237529479#1 237529479#2 237659850#5 237659850#6 532436407#0 532436407#1 532436407#2 244057616#0 244057616#1 545715325#0 545715325#1 316582572#0 316582572#1 316582572#2 316582572#3 316582574#0 316582574#1 545715324#0 545715324#1 316582576#0 316582576#1 316582576#2 316582580#0 316582580#1 316582580#2 316582580#3 316582580#4 449991643#0 449991643#1 449991643#2 538551234 532504847#0 532504847#1 103348969#1 103348969#2 422439069#0 422439069#1 422439069#2 422439069#3 422439069#4 449991638#8 449991638#9 449991638#10 449991638#11 449991638#12 449991638#13 449991637#0 449991637#1 449991637#2 449991637#3 449991637#4 449991637#5 449991637#6 591631503#0 237529489#0 237529489#1 591249159 237529481#0 237529481#1 237529481#2 237529481#3 591637631#0 591637631#1 591637631#2 591637631#3 591631504#0 591631504#1 591631504#2 591631504#3 591631504#4 591631504#5 246638751#0 246638751#1 246638751#2 331574672#0 331574672#1 601816556#0 601816556#2 601816556#4 331574671#0 331574671#1 34609520#0 34609520#1 34609520#2 34609520#3 34609520#4 34609520#5 34609520#6 340350446#0 340350446#1 340350446#2 340350446#3 340350446#4 340350446#5 552124690#1 552124690#2 552124690#3 552124690#4 552124690#5 552124690#6 514858414 491325112 76620724-AddedOnRampEdge 76620724 237659850#0 237659850#1 237659850#2 237659850#3 237659850#4 237529479#3 237529479#4 237529479#5 237923125#0 237923125#1 237923125#2 237923125#3 237529478#0 546184106#0 546184106#1 546184106#2 185961579 245676679#0 245676679#1 245676679#2 519560143 208708606#0 208708602 -243598400#8 -243598400#7 -243598400#6 -243598400#5 -243598400#4 -243598400#3 -243598400#2 4813522#0 4813522#1 4813522#2 245123968#5 243598400#0 243598400#1 243598400#2 243598400#3 243598400#4 243598400#5 243598400#6 243598400#7 243598400#8 185961550 306586234 547637834 4787707 539245337 532303308 309183788#0 309183788#1 545715326 245416089#0 245416089#1 245416089#2 103348976#0 103348976#1 103348976#2 103348976#3 103348976#4 244057618 237529495#0 237529495#1 237529495#2 237529495#3 532698806#0 532698806#1 532436406#0 532436406#1 532436406#2 532436408#0 532436408#1 532436408#2 532436408#3 422439069#15 422439069#16 422439069#17 422439069#18 284834967#7 284834967#8 284834967#9 284834967#10 284834967#11 404402522#0 404402522#1 404402522#2 545901477#0 545901477#1 237923126#0 237923126#1 237923126#2 237923126#3 237923126#4 49303587 237529471#0 237529471#1 237529471#2 237923111#0 237923111#1 237923111#2 545902693 237795732#0 237795732#1 237795732#2 403600282#0 403600282#1 403600282#2 450610285#0 450610285#1 450610285#2 450610285#3 591637631#0 591637631#1 591637631#2 591637631#3 591631504#0 591631504#1 591631504#2 591631504#3 591631504#4 591631504#5 246638751#0 246638751#1 246638751#2 331574672#0 331574672#1 601816556#0 601816556#2 601816556#4 331574671#0 331574671#1 34609521#0 34609521#1 34609521#2 34609521#3 34609521#4 246638751#0 246638751#1 246638751#2 331574672#0 331574672#1 601816556#0 601816556#2 601816556#4 331574671#0 331574671#1 34609520#0 34609520#1 34609520#2 34609520#3 34609520#4 34609520#5 34609520#6 547477970#0 547477970#1 547477970#2 547477970#3 547477970#5 237529476#0 237529476#1 237529476#2 237529476#3 237529476#4 237529476#5 403600282#0 403600282#1 403600282#2 591631503#0 591631503#1 591631503#2 591631503#3 591631645#0 591631645#1 591631645#2 237655875#0 237655875#1 121830607#0 121830607#1 121830607#2 121830607#3 121830607#4 237655873#0 237655873#1 237655873#2 237655873#3 237655873#4 591249160 556491373#0 556491373#1 556491373#2 556491373#3 237529472#0 237529472#1 246638748#0 246638748#1 246638748#2 238326399#0 238326399#1 238326399#2 547477971#0 547477971#1 547477971#2 340350446#0 340350446#1 340350446#2 340350446#3 340350446#4 340350446#5 552124690#1 552124690#2 552124690#3 552124690#4 552124690#5 552124690#6 514858414 491325112 76620724-AddedOnRampEdge 76620724 237659850#0 237659850#1 237659850#2 237659850#3 237659850#4 237529479#3 237529479#4 237529479#5 237923126#0 237923126#1 237923126#2 237923126#3 237923126#4 457712221#0 457712221#1 457712221#2 237529482#0 237529482#1 237529482#2 4750707#0 4750707#0-AddedOffRampEdge 4750707#1 591263080#0"/>
   <route id="4" edges="532303308 309183788#0 309183788#1 545715326 245416089#0 245416089#1 245416089#2 103348976#0 103348976#1 103348976#2 103348976#3 103348976#4 244057618 237529495#0 237529495#1 237529495#2 237529495#3 532698806#0 532698806#1 532436406#0 532436406#1 532436406#2 532436408#0 532436408#1 532436408#2 532436408#3 532436408#4 532436408#5 532436408#6 532436408#7 532436408#8 532436408#9 532436408#10 532436408#11 532436408#12 237659851#0 134565969#1 134565969#2 134565969#3 237805213#0 237805213#1 237805212 237805211#0 237805211#1 237805210#0 237805210#1 237805210#2 237805210#3 237805210#4 237805210#5 449991638#0 449991638#1 449991638#2 449991638#3 4745466#6 4745466#7 4745466#8 4745466#9 4745466#10 4745466#11 4745466#12 449991639#3 449991639#4 449991639#5 449991639#6 449991639#7 449991639#8 449991639#9 449991639#10 449991639#11 449991639#12 449991639#13 449991639#14 237506930#0 237506930#1 237506930#2 237506930#3 237506930#4 237506930#5 237506930#6 243591201 237655875#0 237655875#1 121830607#0 121830607#1 121830607#2 121830607#3 121830607#4 237655873#0 237655873#1 237655873#2 237655873#3 237655873#4 591249160 556491373#0 556491373#1 556491373#2 556491373#3 331574667#0 331574667#1 331574667#2 331574667#3 331574667#4 729397993 729397992#0 729397992#1 548391757#0 548391757#1 548391757#2 548391757#3 246638755#0 246638755#1 246638755#2 488501166 223928337#0 223928337#1 223928337#2 223928337#3 223928337#4 223928337#5 223928339#0 223928339#1 223928339#2 223928339#3 237655878#0 237655878#1 491443473#0 491443473#1 491622341#0 491622341#1 491622341#2 491622341#3 449991643#0 449991643#1 449991643#2 538551234 532504847#0 532504847#1 532504847#2 532504847#3 422439067#0 422439067#1 422439067#2 422439067#3 422439067#4 295124091#2 295124091#3 295124091#4 295124091#5 295124091#6 295124091#7 295124091#8 295124091#9 295124091#10 295124091#11 295124091#12 295124091#13 295124091#14 295124091#15 295124091#16 295124091#17 295124091#18 295124091#19 238380511#0 238380511#1 238380511#2 450139789#0 450139789#1 450139789#2 208708605#5 208708605#6 208708605#7 243669511 245123968#0 245123968#1 245123968#2 245123968#3 4813518#3 4813518#4 4813518#5 243598400#5 243598400#6 243598400#7 243598400#8 185961550 306586234 547637834 4787707 539245337 448563711 532289328#0 532289328#1 448563710 532088856#0 532088856#1 237529468#0 237529468#1 237529468#2 514849726#0 514849726#1 514849726#2 514849726#3 245676676#0 4745577#0 4745577#1 4745577#2 4745577#3 4745577#4 237529471#0 237529471#1 237529471#2 237923111#0 237923111#1 237923111#2 545902693 237795732#0 237795732#1 237795732#2 403600282#0 403600282#1 403600282#2 591631503#0 591631503#1 591631503#2 591631503#3 237655878#0 237655878#1 491443473#0 491443473#1 491443472#0 491443472#1 491443472#2 491443472#3 491443472#4 237506930#4 237506930#5 237506930#6 243591201 237655875#0 237655875#1 241618932#0 241618932#1 241618932#2 241618932#3 4750627#0 4750627#1 4743454#4 4743454#5 4743454#6 4743454#7 4745021#1 4745021#2 4745021#3 4745021#4 331574667#0 331574667#1 331574667#2 331574667#3 331574667#4 729397993 729397992#0 729397992#1 548391757#0 548391757#1 548391757#2 548391757#3 246638755#0 246638755#1 246638755#2 488501166 223928337#0 223928337#1 223928337#2 223928337#3 223928337#4 223928337#5 223928339#0 223928339#1 223928339#2 223928339#3 237655878#0 237655878#1 243591204#1 243591204#2 243591204#3 243591204#4 243591204#5 243591204#6 237529479#0 237529479#1 237529479#2 237529479#3 237529479#4 237529479#5 237923125#0 237923125#1 237923125#2 237923125#3 237529478#0 546184106#0 546184106#1 546184106#2 185961579 245676679#0 245676679#1 245676679#2 519560143 208708606#0 208708602 -243598400#8 -243598400#7 -243598400#6 -243598400#5 -243598400#4 -243598400#3 -243598400#2 4813522#0 4813522#1 4813522#2 4813522#3 4813522#4 136725371#0 136725371#1 136725371#2 136725371#3 -540074149#1 -245123969#1 -245123969#0 245123968#0 245123968#1 245123968#2 245123968#3 4813518#3 4813518#4 4813518#5 243598400#5 243598400#6 243598400#7 243598400#8 185961550 306586234 547637834 4787707 539245337 448563711 532289328#0 532289328#1 448563710 532088856#0 532088856#1 237529468#0 237529468#1 237529468#2 514849726#0 514849726#1 514849726#2 514849726#3 245676676#0 4745577#0 4745577#1 4745577#2 4745577#3 4745577#4 237529471#0 237529471#1 237529471#2 237923111#0 237923111#1 237923111#2 545902693 237795732#0 237795732#1 237795732#2 403600282#0 403600282#1 403600282#2 591631503#0 591631503#1 591631503#2 591631503#3 237655878#0 237655878#1 243591204#1 243591204#2 243591204#3 243591204#4 243591204#5 243591204#6 449991620#0 449991620#1 449991620#2 449991620#3 449991620#4 449991621#0 449991621#1 449991621#2 449991621#3 449991621#4 449991621#5 449991621#6 449991621#7 449991621#8 449991621#9 449991621#10 449991621#11 449991621#12 449991621#13 449991621#14 449991621#15 449991621#16 449991621#17 449991621#18"/>